VERS 161019 205 101156
MODE SEQ
NAME 
PFIL 0 0 0
LANG 0
UNIT MM X W X CM MR CPMM
FLOA
ENVD 20 1 0
GFAC 0 0
GCAT SCHOTT 
RAIM 0 0 1 1 0 0 0 0 0 1
PUSH 0 0 0 0 0 0
SDMA 5 1 0
OMMA 1 1
FTYP 0 0 3 1 0 0 0
ROPD 2
HYPR 0
PICB 1
XFLN 0 0 0 0 0 0 0 0 0 0 0 0
YFLN 0 5 10 0 0 0 0 0 0 0 0 0
FWGN 1 1 1 1 1 1 1 1 1 1 1 1
VDXN 0 0 0 0 0 0 0 0 0 0 0 0
VDYN 0 0 0 0 0 0 0 0 0 0 0 0
VCXN 0 0 0 0 0 0 0 0 0 0 0 0
VCYN 0 0 0 0 0 0 0 0 0 0 0 0
VANN 0 0 0 0 0 0 0 0 0 0 0 0
WAVM 1 0.55000000000000004 1
WAVM 2 0.55000000000000004 1
WAVM 3 0.55000000000000004 1
WAVM 4 0.55000000000000004 1
WAVM 5 0.55000000000000004 1
WAVM 6 0.55000000000000004 1
WAVM 7 0.55000000000000004 1
WAVM 8 0.55000000000000004 1
WAVM 9 0.55000000000000004 1
WAVM 10 0.55000000000000004 1
WAVM 11 0.55000000000000004 1
WAVM 12 0.55000000000000004 1
WAVM 13 0.55000000000000004 1
WAVM 14 0.55000000000000004 1
WAVM 15 0.55000000000000004 1
WAVM 16 0.55000000000000004 1
WAVM 17 0.55000000000000004 1
WAVM 18 0.55000000000000004 1
WAVM 19 0.55000000000000004 1
WAVM 20 0.55000000000000004 1
WAVM 21 0.55000000000000004 1
WAVM 22 0.55000000000000004 1
WAVM 23 0.55000000000000004 1
WAVM 24 0.55000000000000004 1
PWAV 1
POLS 1 0 1 0 0 1 0
GLRS 1 0
GSTD 0 100.000 100.000 100.000 100.000 100.000 100.000 0 1 1 0 0 1 1 1 1 1 1
NSCD 100 500 0 0.001 5 9.9999999999999995e-07 0 0 0 0 0 0 1000000 0 2
COFN QF "COATING.DAT" "SCATTER_PROFILE.DAT" "ABG_DATA.DAT" "PROFILE.GRD"
COFN COATING.DAT SCATTER_PROFILE.DAT ABG_DATA.DAT PROFILE.GRD
SURF 0
  TYPE STANDARD
  FIMP 

  CURV 0.0 0 0 0 0 ""
  HIDE 0 0 0 0 0 0 0 0 0 0
  MIRR 2 0
  SLAB 6
  DISZ INFINITY
  DIAM 0 0 0 0 1 ""
  MEMA 0 0 0 0 1 ""
  POPS 0 0 0 0 0 0 0 0 1 1 1 1 0 0 0 0
SURF 1
  STOP
  TYPE STANDARD
  FIMP 

  CURV 0.0 0 0 0 0 ""
  HIDE 0 0 0 0 0 0 0 0 0 0
  MIRR 2 0
  SLAB 7
  DISZ 10
  DIAM 30 1 0 0 1 ""
  MEMA 30 0 0 0 1 ""
  POPS 0 0 0 0 0 0 0 0 1 1 1 1 0 0 0 0
SURF 2
  TYPE EVENASPH
  FIMP 

  CURV 1.348217069887404015E-02 1 0 0 0 ""
  HIDE 0 0 0 0 0 0 0 0 0 0
  MIRR 2 0
  SLAB 1
  PARM 1 0
  PARM 2 -3.549640442872195e-07
  VPAR 2
  PARM 3 -1.8488804450592086e-10
  VPAR 3
  PARM 4 0
  PARM 5 0
  PARM 6 0
  PARM 7 0
  PARM 8 0
  DISZ 20
  GLAS N-BK7 0 0 1.5 40 0 0 0 0 0 0 
  CONI 1.1506749688461182
  DIAM 34.787683280851731 0 0 0 1 ""
  MEMA 34.787683280851731 0 0 0 1 ""
  VCON
  POPS 0 0 0 0 0 0 0 0 1 1 1 1 0 0 0 0
SURF 3
  TYPE STANDARD
  FIMP 

  CURV 0.0 0 0 0 0 ""
  HIDE 0 0 0 0 0 0 0 0 0 0
  MIRR 2 0
  SLAB 2
  DISZ 67.57645743585563
  VDSZ 0 0
  DIAM 34.029786964621977 0 0 0 1 ""
  MEMA 34.787683280851731 0 0 0 1 ""
  POPS 0 0 0 0 0 0 0 0 1 1 1 1 0 0 0 0
SURF 4
  TYPE EVENASPH
  FIMP 

  CURV -2.941484648441006558E-02 1 0 0 0 ""
  HIDE 0 0 0 0 0 0 0 0 0 0
  MIRR 2 0
  SLAB 8
  PARM 1 0
  PARM 2 -1.8997471341983525e-06
  VPAR 2
  PARM 3 2.0932915606369437e-10
  VPAR 3
  PARM 4 0
  PARM 5 0
  PARM 6 0
  PARM 7 0
  PARM 8 0
  DISZ 20
  GLAS N-BK7 0 0 1.5 40 0 0 0 0 0 0 
  CONI -2.6675443795123779
  DIAM 28.595958449318644 0 0 0 1 ""
  MEMA 33.983904968185279 0 0 0 1 ""
  VCON
  POPS 0 0 0 0 0 0 0 0 1 1 1 1 0 0 0 0
SURF 5
  TYPE STANDARD
  FIMP 

  CURV 0.0 0 0 0 0 ""
  HIDE 0 0 0 0 0 0 0 0 0 0
  MIRR 2 0
  SLAB 9
  DISZ 28.682339319971074
  VDSZ 0 0
  DIAM 33.983904968185279 0 0 0 1 ""
  MEMA 33.983904968185279 0 0 0 1 ""
  POPS 0 0 0 0 0 0 0 0 1 1 1 1 0 0 0 0
SURF 6
  TYPE EVENASPH
  FIMP 

  CURV 2.131648098919585940E-02 1 0 0 0 ""
  HIDE 0 0 0 0 0 0 0 0 0 0
  MIRR 2 0
  SLAB 3
  PARM 1 0
  PARM 2 6.4271233500054228e-07
  VPAR 2
  PARM 3 -8.1667994765670434e-11
  VPAR 3
  PARM 4 0
  PARM 5 0
  PARM 6 0
  PARM 7 0
  PARM 8 0
  DISZ 20
  GLAS N-BK7 0 0 1.5 40 0 0 0 0 0 0 
  CONI -2.9194982403989931
  DIAM 47.008389428543865 0 0 0 1 ""
  MEMA 47.008389428543865 0 0 0 1 ""
  VCON
  POPS 0 0 0 0 0 0 0 0 1 1 1 1 0 0 0 0
SURF 7
  TYPE STANDARD
  FIMP 

  CURV 0.0 0 0 0 0 ""
  HIDE 0 0 0 0 0 0 0 0 0 0
  MIRR 2 0
  SLAB 4
  DISZ 70.454931449397378
  VDSZ 0 0
  DIAM 46.820458115956129 0 0 0 1 ""
  MEMA 47.008389428543865 0 0 0 1 ""
  POPS 0 0 0 0 0 0 0 0 1 1 1 1 0 0 0 0
SURF 8
  TYPE STANDARD
  FIMP 

  CURV 0.0 0 0 0 0 ""
  HIDE 0 0 0 0 0 0 0 0 0 0
  MIRR 2 0
  SLAB 5
  DISZ 0
  DIAM 35.26156542766789 0 0 0 1 ""
  MEMA 35.26156542766789 0 0 0 1 ""
  POPS 0 0 0 0 0 0 0 0 1 1 1 1 0 0 0 0
TOTR 0 0 0 0 0 0 200 0 0 0
CENY 0 0 2 0 5 0 17.497 1 0 0
CENY 0 0 3 0 5 0 35.265000000000001 1 0 0
RETY 0 1 0 0.5 0 0 0 10 0 0
RETY 8 1 0 1 0 0 0 10 0 0
BLNK 
DMFS 0 0 0 0 0 0 0 0 0 0
BLNK Sequential merit function: RMS spot radius centroid GQ 3 rings 6 arms
BLNK Default individual air and glass thickness boundary constraints.
MNCA 1 1 0 0 0 0 0 1 0 0
MXCA 1 1 0 0 0 0 1000 1 0 0
MNEA 1 1 0 0 0 0 0 1 0 0
MNCG 1 1 0 0 0 0 2 1 0 0
MXCG 1 1 0 0 0 0 20 1 0 0
MNEG 1 1 0 0 0 0 2 1 0 0
MNCA 2 2 0 0 0 0 0 1 0 0
MXCA 2 2 0 0 0 0 1000 1 0 0
MNEA 2 2 0 0 0 0 0 1 0 0
MNCG 2 2 0 0 0 0 2 1 0 0
MXCG 2 2 0 0 0 0 20 1 0 0
MNEG 2 2 0 0 0 0 2 1 0 0
MNCA 3 3 0 0 0 0 0 1 0 0
MXCA 3 3 0 0 0 0 1000 1 0 0
MNEA 3 3 0 0 0 0 0 1 0 0
MNCG 3 3 0 0 0 0 2 1 0 0
MXCG 3 3 0 0 0 0 20 1 0 0
MNEG 3 3 0 0 0 0 2 1 0 0
MNCA 4 4 0 0 0 0 0 1 0 0
MXCA 4 4 0 0 0 0 1000 1 0 0
MNEA 4 4 0 0 0 0 0 1 0 0
MNCG 4 4 0 0 0 0 2 1 0 0
MXCG 4 4 0 0 0 0 20 1 0 0
MNEG 4 4 0 0 0 0 2 1 0 0
MNCA 5 5 0 0 0 0 0 1 0 0
MXCA 5 5 0 0 0 0 1000 1 0 0
MNEA 5 5 0 0 0 0 0 1 0 0
MNCG 5 5 0 0 0 0 2 1 0 0
MXCG 5 5 0 0 0 0 20 1 0 0
MNEG 5 5 0 0 0 0 2 1 0 0
MNCA 6 6 0 0 0 0 0 1 0 0
MXCA 6 6 0 0 0 0 1000 1 0 0
MNEA 6 6 0 0 0 0 0 1 0 0
MNCG 6 6 0 0 0 0 2 1 0 0
MXCG 6 6 0 0 0 0 20 1 0 0
MNEG 6 6 0 0 0 0 2 1 0 0
MNCA 7 7 0 0 0 0 0 1 0 0
MXCA 7 7 0 0 0 0 1000 1 0 0
MNEA 7 7 0 0 0 0 0 1 0 0
MNCG 7 7 0 0 0 0 2 1 0 0
MXCG 7 7 0 0 0 0 20 1 0 0
MNEG 7 7 0 0 0 0 2 1 0 0
BLNK Operands for field 1.
TRAC 0 1 0 0 0.33571068701972878 0 0 0.29088820866572007 0 0
TRAC 0 1 0 0 0.70710678118654757 0 0 0.46542113386515449 0 0
TRAC 0 1 0 0 0.94196514511989338 0 0 0.29088820866572007 0 0
BLNK Operands for field 2.
TRAC 0 1 0 0.5 0.16785534350986436 0.29073398328101197 0 0.096962736221906681 0 0
TRAC 0 1 0 0.5 0.35355339059327373 0.61237243569579458 0 0.15514037795505148 0 0
TRAC 0 1 0 0.5 0.47098257255994658 0.81576574515332312 0 0.096962736221906681 0 0
TRAC 0 1 0 0.5 0.33571068701972878 0 0 0.096962736221906681 0 0
TRAC 0 1 0 0.5 0.70710678118654757 0 0 0.15514037795505148 0 0
TRAC 0 1 0 0.5 0.94196514511989338 0 0 0.096962736221906681 0 0
TRAC 0 1 0 0.5 0.16785534350986436 -0.29073398328101197 0 0.096962736221906681 0 0
TRAC 0 1 0 0.5 0.35355339059327373 -0.61237243569579458 0 0.15514037795505148 0 0
TRAC 0 1 0 0.5 0.47098257255994658 -0.81576574515332312 0 0.096962736221906681 0 0
BLNK Operands for field 3.
TRAC 0 1 0 1 0.16785534350986436 0.29073398328101197 0 0.096962736221906681 0 0
TRAC 0 1 0 1 0.35355339059327373 0.61237243569579458 0 0.15514037795505148 0 0
TRAC 0 1 0 1 0.47098257255994658 0.81576574515332312 0 0.096962736221906681 0 0
TRAC 0 1 0 1 0.33571068701972878 0 0 0.096962736221906681 0 0
TRAC 0 1 0 1 0.70710678118654757 0 0 0.15514037795505148 0 0
TRAC 0 1 0 1 0.94196514511989338 0 0 0.096962736221906681 0 0
TRAC 0 1 0 1 0.16785534350986436 -0.29073398328101197 0 0.096962736221906681 0 0
TRAC 0 1 0 1 0.35355339059327373 -0.61237243569579458 0 0.15514037795505148 0 0
TRAC 0 1 0 1 0.47098257255994658 -0.81576574515332312 0 0.096962736221906681 0 0
TOL TOFF   0   0              0              0   0 0 0 0
MNUM 1 1
MOFF   0   1 "" 0 0 0 1 1 0 0.0 "" 0
